<?xml version="1.0" encoding="UTF-8"?>

<!-- generated on 2025-12-30T23:42:03.552031+05:30 by Eclipse SUMO duarouter 1.25.0
<duarouterConfiguration xmlns:xsi="http://www.w3.org/2001/XMLSchema-instance" xsi:noNamespaceSchemaLocation="http://sumo.dlr.de/xsd/duarouterConfiguration.xsd">

    <input>
        <net-file value="delhi.net.xml"/>
        <route-files value="trips.trips.xml"/>
    </input>

    <output>
        <output-file value="delhi.rou.xml"/>
    </output>

</duarouterConfiguration>
-->

<routes xmlns:xsi="http://www.w3.org/2001/XMLSchema-instance" xsi:noNamespaceSchemaLocation="http://sumo.dlr.de/xsd/routes_file.xsd">
    <vehicle id="0" depart="0.00">
        <route edges="24583491#0 24583491#1 24583491#2 24583491#3 563974730#3 563974730#4 563974730#5 996679779#0 996679779#1 996679779#2 996679779#3 996679779#4 996679779#5 996679779#6 996679779#7 447141147#0 447141147#1 447141147#2 24583324#0 24583324#1 590609994#0 590609994#1 717907807#0 717907807#1 717907807#2 717907807#3 717907807#4 717907807#5 717907807#6 24583320 570526051 447141152 570526053 447141150#0 111695525#0 111695525#1 44277690#1 44277690#2 44277690#3 44277690#4 -1072967425#1"/>
    </vehicle>
    <vehicle id="1" depart="1.00">
        <route edges="-423553702#1 423553702#1 223906999#1 563679821#5 562340241 562340248#0 562340248#1 564223496#0 564223496#1 578543605 564223494#0 564223494#1 564223494#2 564223494#3 554665389#0 554665389#1 554665389#2 125453679#0 125453679#1 125453679#2 125453679#3 125453679#4 125453679#5 125453679#7 31058508#0 31058508#1 31058508#2 31058508#3 31058508#4 31058508#5 294288720#0 294288720#1 294288720#2 294288720#3 -79562254#3 -79562254#2 -79562254#0 294288718#0 294288718#1 -294288718#1"/>
    </vehicle>
    <vehicle id="2" depart="2.00">
        <route edges="38235289#14 1102507028 1067100260#0 1067100260#1 1067100260#2 1067100260#3 1067100260#4 1067100260#5 1067100260#6 1343796256#0 1343796256#1 1450857030 44263458#1 44263458#2 44263458#3 44263458#4 44263458#5 44263458#6 44263458#7 590610031#1 590610031#2 31056642#0 1145143267#0 1145143267#1 700305760#0 700305760#1 700305760#2 700305760#4 700305760#5 700305760#6 700305760#7 700305760#8 44277692#1 44277692#2 447141149#1 447141149#2 665150702 554665390 570526052 24583320 570526051 447141152 48964552#0 48964552#1 48964552#2 48964552#3 48964552#4 48964552#5 48964552#6 998197440 447141154 1278775919 24583771#0 24583771#1 24583771#2 24583771#3 24583773 447141155#0 447141155#1 447141155#2 502579562 44188368#0 -24584511#9 -24584511#8 -24584511#7 -24584511#6 -24584511#5 -24584511#4 -24584511#3 -24584511#2 24584512#0"/>
    </vehicle>
    <vehicle id="3" depart="3.00">
        <route edges="714986193 -169080632#2 169080628#6 714986189#2 714986189#3 714986189#4 714986189#5 80414543#1 80414543#2 120287369#0 120287369#1 -120287369#1"/>
    </vehicle>
    <vehicle id="4" depart="4.00">
        <route edges="1072958463 1122026479 -1122026479 -1072958463 -80926777#10 -80926777#8 -80926777#7 -80926777#6 -80926777#5 -80926777#4 -80926777#3 -80926777#2 -700305759#1 -700305759#0 31056642#3 590609996 779129470 80926788#0 80926788#1 80926788#2 80926788#3 80926788#4 80926788#5 80926788#6 80926788#7 463699077#0 1450857029 492439726#0 492439726#1 80926759#0 80926759#1 80926759#2 80926759#3 80926759#4 686925959 -38235041#7 -686878276 293153163#0 293153163#1 293153163#3 164698289#0 164698289#1 -1076749548"/>
    </vehicle>
    <vehicle id="5" depart="5.00">
        <route edges="-24584507#0 24584506 24584500#2 24584500#3 24584501 -80678182#2 -80678182#1 -80678182#0 1271156422 -1271156421#5 -1271156421#4 -1271156421#3 -1271156421#2 -1271156421#1 -1271156421#0 24584397 24583771#3 24583773 447141155#0 447141155#1 447141155#2 31756488 665150699#0 665150699#1 665150699#2 447141143#0 447141143#1 1424529893 665150665#0 665150665#1 998197441 447141151#0 447141151#1 447141151#2 447141151#3 447141151#4 447141151#5 447141151#6 447141151#7 447141150#0 447141150#1 447141149#0 447141149#1 447141149#2 1219699878#0 1219699878#1 1219699878#2 24583330#0 24583330#1 24583330#2 24583330#3 24583330#4 24583330#5 24583330#6 24583330#7 24583330#8 615556515#0 615556515#1 615556515#2 564223494#0 564223494#1 564223494#2 564223494#3 554665389#0 554665389#1 554665389#2 578543606 80414533#1 80414533#2 80414533#3 80414533#4 80414533#5 80414533#6 80414533#7 80414533#8 37194987#0 37194987#1 37194987#2 37194987#3 37194987#5 37194987#6 37194987#7 37194987#8 -169080628#6 169080632#2 169080632#3 -169080634#4 -169080634#3 -169080634#2 -169080634#1 -169080634#0 1238224319 1238224320#0 1238224320#1"/>
    </vehicle>
    <vehicle id="6" depart="6.00">
        <route edges="-1072963717#0 1072963717#0 1072963717#1 -675478334#3 -675478334#2 -675478334#1 -675478334#0 24584380#8 -1271156414#1 -1271156414#0 -24584426#1"/>
    </vehicle>
    <vehicle id="7" depart="7.00">
        <route edges="24583770 -24583770 -24583769#1 -24583769#0 24583337#1 24583335#0 24583335#1 24583335#2 24583335#4 24583335#5 447141147#2 24583324#0 24583324#1 590609994#0 590609994#1 572511730 447141148 24583327#0 24583327#1 24583327#2 24583327#3 24583327#4 24583327#5 24583327#6 24583327#7 24583327#8 24583327#9 24583327#10 24583327#11 24583327#13 997761545 997761544 997761546#0 997761546#1 570616029#0 570616029#1 564223496#0 564223496#1 578543605 564223494#0 564223494#1 564223494#2 564223494#3 554665389#0 554665389#1 554665389#2 578543606 80414533#1 80414533#2 80414533#3 80414533#4 80414533#5 80414533#6 80414533#7 80414533#8 37194987#0 37194987#1 37194987#2 37194987#3 80414543#1 80414543#2 80414543#3 77885906#0 77885906#1 77885906#2 77885906#3 1154556339 1102507028 1387169685#0 1387169685#1"/>
    </vehicle>
    <vehicle id="8" depart="8.00">
        <route edges="-24584511#7 -24584511#6 -24584511#5 -24584511#4 -24584511#3 686684499 -24584510 24584500#3 24584501 -80678182#2 -80678182#1 -80678182#0 581245357 581245359 581245363#0 581245363#2 581245363#3 581245363#4 581522562 570413588#0 570413588#1 714990513#0 714990513#1 714990513#2 714990513#3 570413589#0 570413589#1 570413589#2 447141139 1425368050#0 1425368050#1 447141140 722082949#0 722082949#1 447141153#0 611866595#0 611866595#1 611866595#2 611866595#3 611866595#4 611866594 611866596#0 611866596#1 1066077570#0 1066077570#1 1066077570#2 447141137#0 447141137#1 447141137#2 758753881#0 758753881#1 758753882 590609994#0 590609994#1 572511730 447141148 24583327#0 24583327#1 24583327#2 24583327#3 24583327#4 24583327#5 24583327#6 24583327#7 24583327#8 24583327#9 24583327#10 24583327#11 74851428#0 74851428#1 74851428#2 74851428#3 74851428#4 611866605 563679821#0 563679821#1 563679821#2 563679821#3 563679821#4 -223906999#1 223906999#1"/>
    </vehicle>
    <vehicle id="9" depart="9.00">
        <route edges="563974735#3 563974735#5 563974735#6 563974735#7 563974735#8 563974735#9 563974735#10 579781481#1 579781481#2 579781481#3 579781481#4 579781481#5 579781481#6 579781481#7 579781481#8 579781481#9 579781481#10 570616027 23133709#0 23133709#1 23133709#2 23133709#3 23133709#4 23133709#5 562340241 562340248#0 562340248#1 564223496#0 564223496#1 578543605 564223494#0 564223494#1 564223494#2 564223494#3 554665389#0 554665389#1 554665389#2 125453679#0 125453679#1 125453679#2 125453679#3 125453679#4 125453679#5 125453679#7 31058508#0 31058508#1 31058508#2 31058508#3 31058508#4 31058508#5 294288720#0 294288720#1 294288720#2 294288720#3 -79562254#3 -79562254#2 -79562254#0 294288718#0 294288718#1 -1072910353#1 1072910351#0 1072910351#1 1072910351#2 -1072910351#2"/>
    </vehicle>
    <vehicle id="10" depart="10.00">
        <route edges="563791811#4 563791811#5 563791811#6 686781072 579781481#2 579781481#3 579781481#4 579781481#5 579781481#6 579781481#7 579781481#8 579781481#9 579781481#10 570616027 23133709#0 23133709#1 23133709#2 23133709#3 23133709#4 23133709#5 562340241 562340248#0 562340248#1 564223496#0 564223496#1 578543605 564223494#0 564223494#1 564223494#2 564223494#3 554665389#0 554665389#1 554665389#2 125453679#0 125453679#1 125453679#2 -319329101#11 -319329101#10 -319329101#9 -38235349#3 993538737 293153156#1 -293153161#2 293153161#2"/>
    </vehicle>
    <vehicle id="11" depart="11.00">
        <route edges="-717512502#0 717512502#0 717512502#1 717512501 -370672197#0 712992080#1 712992080#2 712992080#3 712992080#4 995113419 570859666#0 570859666#1 570859666#2 446922583#0 446922583#1 722082942 447141131#0 447141131#1 447141131#2 1076627689#0 1076627689#1 1076627690 562439576 563974732#0 563974732#1 563974732#2 563974735#0 563974735#1 563974735#3 563974735#5 563974735#6 563974735#7 563974735#8 563974735#9 563974735#10 563974733#1 995793692#0 995793692#1 995793692#2 995793692#3 995793692#4 995793692#5 995793692#6 995793692#7 563975284#0 614072000 563679821#0 563679821#1 563679821#2 563679821#3 563679821#4 -223906999#1 -223906999#0"/>
    </vehicle>
    <vehicle id="12" depart="12.00">
        <route edges="80926768#12 -80926768#12 1066625120#9 1066625120#10 590610030#4 590610030#5 590610030#6 590610030#7 31056645#1 31056645#2 31056645#3 31056645#4 31056645#5 31056645#6 31056645#7 31056645#8 31056645#9 590609973#0 590609973#1 294288720#0 294288720#1 -79561650#3 -79561650#2 -79561650#1"/>
    </vehicle>
    <vehicle id="13" depart="13.00">
        <route edges="-120287345#1 -120287345#0 1067100260#1 1067100260#2 1067100260#3 1067100260#4 1067100260#5 1067100260#6 1343796256#0 1343796256#1 1123526750 1450857029 492439726#0 492439726#1 80926759#0 80926759#1 80926759#2 80926759#3 -319329101#11 -319329101#10 -319329101#9 -38235349#3 -38235349#1 -123406196#1"/>
    </vehicle>
    <vehicle id="14" depart="14.00">
        <route edges="615556519#7 615556519#8 615556519#9 615556519#10 1285005491 1219699881#0 1219699881#1 1219699881#2 1219699881#3 1219699881#4 24583332#14 24583332#16 24583332#17 554665390 24583321#0 24583321#1 24583321#2 997761553 997761552#0 997761552#1 994825990#0 994825990#1 994825990#2 447141148 572511731 447141147#0 24583334#0 24583334#1 24583334#4 24583334#5 24583337#3 24583337#4 24583337#5 24583337#6 24583337#7 24583339#0 24583339#1 24583339#2 24583339#3 24583339#4 24583339#5 24583339#6 447141132#4 596373329 562340239 722082943#0 722082943#1 23134734#0 23134734#1 23134734#2 23134734#3 709276133#0 709276133#1 24577108#1 24577108#2 24577108#3 24577108#4"/>
    </vehicle>
    <vehicle id="15" depart="15.00">
        <route edges="563974730#2 563974730#3 563974730#4 563974730#5 24583327#13 997761545 997761544 997761546#0 997761546#1 570616029#0 570616029#1 564223496#0 564223496#1 578543605 564223494#0 564223494#1 564223494#2 564223494#3 554665389#0 554665389#1 554665389#2 578543606 80414533#1 80414533#2 80414533#3 80414533#4 80414533#5 80414533#6 80414533#7 80414533#8 267447262#0 1310427872#0 1310427872#1 38235041#0 38235041#1 38235041#2 38235041#3 38235041#4 38235041#5 38235041#6"/>
    </vehicle>
    <vehicle id="16" depart="16.00">
        <route edges="1306164413#0 1306164414 154356520#1 750482273#5 750482273#6 750482273#8 750482273#9 265975966#3 80418139#0 80418139#1 80418139#2 596010573#2 978263401#0 978263401#1 978263401#2 978263401#3 293531858 978263399#1"/>
    </vehicle>
    <vehicle id="17" depart="17.00">
        <route edges="-904492404#1 -1423495174 -44141517#10 904492403 1423495170#1 1423495170#2 1423495170#3 1423495170#4 1423495170#5 1423495170#6 1423495170#7 1423495172"/>
    </vehicle>
    <vehicle id="18" depart="18.00">
        <route edges="590610027#1 202664155#0 202664155#1 590610000#0 590610000#1 77885911#0 77885911#1 77885911#2 749606305 31060395#0 31060395#1 31060395#2 31060395#3 31060395#4 31060395#5 31058510#0 31058510#1 31058510#2 1450857029 492439726#0 492439726#1 80926759#0 80926759#1 80926759#2 80926759#3 80926759#4 80926759#5 80926759#6 80926759#7 578543606 730111073#1 730111073#2 446922590#0 446922590#1 446922590#2 446922590#3 446922590#4 446922590#5 446922590#6 572511732#1 572511732#2 572511732#3 572511732#4 572511732#5 572511732#6 572511732#7 572511732#8 760480737 578543603#1 578543603#2 578543603#3 578543603#4 611866604#0 611866604#1 611866602#0 24582921#0 24582921#2 24582921#3 24582921#4 24582921#5"/>
    </vehicle>
    <vehicle id="19" depart="19.00">
        <route edges="686792698#5 -686792699#0 1145143266#10 1219699876#6 1219699876#7 -24584373#10 -24584373#9 -24584373#8 -24584373#7 -24584373#6 -24584373#5 -24584373#4 -24584373#3 -24584373#2 -24584373#1 -319329101#11 -319329101#10 -319329101#9 -319329101#7 -319329101#6 -319329101#5 -319329101#4 -319329101#3 -319329101#2 -267447262#12 -267447262#11 -267447262#10 -267447262#9 -267447262#8 -267447262#7 -267447262#6 -267447262#4 -267447262#3 -267447262#2 -267447262#0 37194987#0 37194987#1 37194987#2 37194987#3 37194987#5 37194987#6 37194987#7 176466587#0 176466587#1 176466587#2 176466587#3 176466587#4 176466587#6 55085087#0 -169080624#9 169080624#9"/>
    </vehicle>
    <vehicle id="20" depart="20.00">
        <route edges="294288717#1 294288717#2 1139113699#0 1139113699#1 79561648#7 -294288720#1 -294288720#0 31056646#1 31056646#2 31056646#3 31056646#4 31056646#5 31056646#6 31056646#7 590609998#2 590609998#3 590609998#4 590609998#5 111695524#1 111695524#2 80926768#12 80926768#13 80926768#14 -1122023987#1 -1122023987#0"/>
    </vehicle>
    <vehicle id="21" depart="21.00">
        <route edges="-267447262#15 -267447262#14 319329101#2 319329101#3 319329101#4 319329101#5 319329101#6 319329101#7 319329101#9 319329101#10 319329101#11 24584373#1 24584373#2 24584373#3 24584373#4 24584373#5 24584373#6 24584373#7 24584373#8 24584373#9 24584373#10 1285005491 1219699881#0 1219699881#1 1219699881#2 1219699881#3 1219699881#4 24583332#14 24583332#16 24583332#17 554665390 570526052 24583320 24584375#0 24584375#1 -24584383#0 -1354558617 -675478334#9 -675478334#8 -675478334#7 -675478334#5 -675478334#4 -675478334#3 -675478334#2 -675478334#1"/>
    </vehicle>
    <vehicle id="22" depart="22.00">
        <route edges="-1154556338#1 -1154556338#0 1102507027#0 1102507027#1 1102507027#2 1102507027#3 442470201#0 442470201#1 442470201#2 714986189#4 714986189#5 714986189#8 714986189#9 714986189#10 714986189#11 714986189#12 714986188#0 714986188#1 714986188#2 714986188#3 714986188#4 714986188#5 446922590#0 446922590#1 446922590#2 446922590#3 446922590#4 446922590#5 446922590#6 572511732#1 572511732#2 572511732#3 572511732#4 572511732#5 572511732#6 572511732#7 572511732#8 760480736 562340247#0 562340247#1 562340247#2 562340247#3 562340247#5 562340243 570616026#0 570616026#1 570616026#2 570616026#4 570616026#6 570616026#7 570616026#8 570616026#9 570616026#10 570616026#11 563679836#0 563679836#1 563679836#2 563679836#3 563679836#4 563679836#5 563679836#6 563679836#7 563679836#8 563679836#9 563679836#10 563679836#11 563679836#12 563679836#13 563679836#14 563679836#15 998790352#3 998790352#4 998790358#0 998790358#1 998790358#2 998790358#3 998790358#4 998790358#5 998790358#6 998790358#7 998790358#9 998790358#10 998790358#11 998790358#12 998790358#14 998790358#15 998790358#16 998790358#17 24583593#5 24583593#6 24583593#7 24583593#8 -370672194#14 -370672194#13 -370672194#12 -370672194#11 -370672194#10 -370672194#8 -370672194#7 -370672194#6 -370672194#5 -370672194#4 -370672194#3 -370672194#2"/>
    </vehicle>
    <vehicle id="23" depart="23.00">
        <route edges="-120287371#1 120287371#1 38235325#8 38235325#10 38235325#11 38235325#12 38235325#13 37194987#3 37194987#5 714986189#4 714986189#5 714986189#8 714986189#9 714986189#10 714986189#11 714986189#12 714986188#0 714986188#1 714986188#2 714986188#3 714986188#4 714986188#5 446922590#0 446922590#1 446922590#2 446922590#3 446922590#4 446922590#5 446922590#6 572511732#1 572511732#2 572511732#3 572511732#4 572511732#5 572511732#6 572511732#7 572511732#8 760480737 578543603#1 578543603#2 578543603#3 578543603#4 578543603#5 578543603#6 578543603#7 523568284#1 523568284#2 523568284#3 523568284#4 523568284#5 24583333#0 24583333#1 74851424#0 -1277942000#8 -1277942000#7 -1277942000#5 -1277942000#4 -1277942000#3 -1277942000#1 -1277942000#0 1121191978#1 553590476#2 -633143618 -553590482#1 -553590482#0"/>
    </vehicle>
    <vehicle id="24" depart="24.00">
        <route edges="24583488#1 24583488#2 24583488#4 24583488#5 612734121#0 612734121#1 612734121#2 24583332#4 24583332#5 24583332#6 24583332#7 24583332#8 24583332#9 24583332#10 24583332#11 24583332#12 24583330#0 24583330#1 1122215532#0 1122215532#1 1122215533 -993539971#1"/>
    </vehicle>
    <vehicle id="25" depart="25.00">
        <route edges="-80926777#4 -80926777#3 -80926777#2 -700305759#1 -700305759#0 31056642#3 590609996 779129470 80926788#0 80926788#1 80926788#2 80926788#3 80926788#4 80926788#5 80926788#6 80926788#7 463699077#0 1331524579#0 1331524579#1 -267447262#24 -267447262#23 -267447262#22 -267447262#20 -267447262#19 -267447262#18 -267447262#17 -267447262#16 -267447262#15 -267447262#14 -267447262#12 -267447262#11 -267447262#10 -267447262#9 -267447262#8 -267447262#7 -267447262#6 -267447262#4 -267447262#3 -267447262#2 -267447262#0"/>
    </vehicle>
    <vehicle id="26" depart="26.00">
        <route edges="-38235329#0 38235260#6 -38235325#1 -38235325#0 -38235289#7 -120287381#1 -120287381#0 1067100260#3 -79562254#4 -1072933747 79562254#3"/>
    </vehicle>
    <vehicle id="27" depart="27.00">
        <route edges="24583594#1 24583594#2 563679836#11 563679836#12 563679836#13 563679836#14 563679836#15 998790352#3 998790352#4 998790358#0 998790358#1 998790358#2 998790358#3 998790358#4 998790358#5 998790358#6 998790358#7 998790358#9 998790358#10 998790358#11 998790358#12 998790358#14 998790358#15 998790358#16 998790358#17 24583593#5 24583593#6 24583593#7 24583593#8 24583593#10 24583593#11 24577361#3 24577361#4 24577361#5 24577361#6 24577361#7"/>
    </vehicle>
    <vehicle id="28" depart="28.00">
        <route edges="-176466587#11 -176466587#10 -176466587#9 -176466587#8 -176466587#7 -176466587#6 -176466587#4 -176466587#3 -176466587#2 -176466587#1 -176466587#0 714986189#3 714986189#4 714986189#5 80414543#1 80414543#2 80414543#3 77885906#0 77885906#1 696618263#0 696618263#1 38235325#5 38235325#6 38235325#7 38235325#8 38235325#10 38235325#11 169079848#0 169079848#1 1310427872#0 1310427872#1 38235041#0 38235041#1 38235041#2"/>
    </vehicle>
    <vehicle id="29" depart="29.00">
        <route edges="-169080628#2 169080628#2 169080628#3 169080628#4 169080628#5 169080628#6 714986189#2 714986189#3 714986189#4 714986189#5 714986189#8 714986189#9 714986189#10 714986189#11 714986189#12 714986188#0 714986188#1 714986188#2 714986188#3 714986188#4 714986188#5 446922590#0 446922590#1 446922590#2 446922590#3 446922590#4 446922590#5 446922590#6 572511732#1 572511732#2 572511732#3 572511732#4 572511732#5 572511732#6 572511732#7 572511732#8 760480736 562340247#0 562340247#1 562340247#2 562340247#3 562340247#5 562340245 23133709#0 23133709#1 23133709#2 23133709#3 23133709#4 23133709#5 562340241 570616028#0 570616028#1 1278775921#0 1278775921#1 1278775920 24577478#0 24577478#1 1066619122#0"/>
    </vehicle>
    <vehicle id="30" depart="30.00">
        <route edges="997761545 997761544 997761546#0 997761546#1 570616029#0 570616029#1 564223496#0 564223496#1 578543605 564223494#0 564223494#1 564223494#2 564223494#3 554665389#0 554665389#1 554665389#2 578543606 730111073#1 730111073#2 446922590#0 446922590#1 446922590#2 446922590#3 446922590#4 446922590#5 446922590#6 572511732#1 572511732#2 572511732#3 572511732#4 572511732#5 572511732#6 572511732#7 572511732#8 760480736 562340247#0 562340247#1 562340247#2 562340247#3 562340247#5 562340243 570616026#0 570616026#1 570616026#2 570616026#4 570616026#6 570616026#7 570616026#8 570616026#9 570616026#10 570616026#11 563679836#0 563679836#1 563679836#2 563679836#3 563679836#4 563679836#5 563679836#6 563679836#7 563679836#8 563679836#9 563679836#10 563679836#11 563679836#12 563679836#13 563679836#14 563679836#15 1242128092#1 24583590#1 24583590#2"/>
    </vehicle>
    <vehicle id="31" depart="31.00">
        <route edges="1427873854#1 24583330#7 24583330#8 615556515#0 615556515#1 615556515#2 564223494#0 564223494#1 564223494#2 564223494#3 554665389#0 554665389#1 554665389#2 125453679#0 125453679#1 125453679#2 -319329101#11 -319329101#10 -319329101#9 -319329101#7 -319329101#6 -319329101#5 -319329101#4 -319329101#3 -319329101#2 267447262#14 267447262#15 267447262#16 267447262#17 267447262#18 267447262#19 267447262#20"/>
    </vehicle>
    <vehicle id="32" depart="32.00">
        <route edges="612734124#0 -612734124#0 -24583488#1 -24583488#0 997761546#1 570616029#0 570616029#1 564223496#0 564223496#1 578543605 564223494#0 564223494#1 564223494#2 564223494#3 554665389#0 554665389#1 554665389#2 578543606 730111073#1 730111073#2 446922590#0 446922590#1 446922590#2 446922590#3 446922590#4 446922590#5 446922590#6 572511732#1 572511732#2 572511732#3 572511732#4 572511732#5 572511732#6 572511732#7 572511732#8 760480737 578543603#1 578543603#2 578543603#3 578543603#4 578543603#5 578543603#6 578543603#7 523568284#1 523568284#2 523568284#3 523568284#4 523568284#5 24583333#0 24583333#1 24583333#2 24583333#3 24583333#4 24583333#5 24583333#6 447602096#0 447602096#1 447602096#2"/>
    </vehicle>
    <vehicle id="33" depart="33.00">
        <route edges="-267447262#22 -267447262#20 -267447262#19 -267447262#18 -267447262#17 -267447262#16 -267447262#15 -267447262#14 319329101#2 319329101#3 319329101#4 319329101#5 319329101#6 319329101#7 319329101#9 319329101#10 319329101#11 80926759#4 80926759#5 80926759#6 80926759#7 578543606 730111073#1 730111073#2 446922590#0 446922590#1 446922590#2 446922590#3 446922590#4 446922590#5 446922590#6 596346055#0 596346055#1 1252826818#1 1252826818#2 1252826818#3 1252826818#4 1252826818#5 1252826818#6 1252826818#7 38699591#8 717454380#0 717454379#0 717454379#1 717454375#0 -1076782191"/>
    </vehicle>
    <vehicle id="34" depart="34.00">
        <route edges="-686792705#1 686792698#0 686792698#1 -686792703#0 1145143266#6 1145143266#7 1145143266#8 1145143266#9 1145143266#10 44263457#0 44263457#2 44263457#3 44263457#4 44263457#5 -44263457#5"/>
    </vehicle>
    <vehicle id="35" depart="35.00">
        <route edges="-24584416#1 -24584422#0 -1271156421#0 24584397 24583771#3 24583773 447141155#0 447141155#1 447141155#2 31756488 665150699#0 665150699#1 665150699#2 447141143#0 447141143#1 1424529893 665150665#0 665150665#1 998197441 447141151#0 447141151#1 447141151#2 447141151#3 447141151#4 447141151#5 447141151#6 447141151#7 447141150#0 447141150#1 447141149#0 447141149#1 447141149#2 1219699878#0 1219699878#1 1219699878#2 24583330#0 24583330#1 24583330#2 24583330#3 24583330#4 24583330#5 24583330#6 24583330#7 24583330#8 615556515#0 615556515#1 615556515#2 564223494#0 564223494#1 564223494#2 564223494#3 554665389#0 554665389#1 554665389#2 578543606 730111073#1 730111073#2 446922590#0 446922590#1 446922590#2 446922590#3 446922590#4 446922590#5 446922590#6 596346055#0 596346055#1 1252826818#1 1252826818#2 1252826818#3 1252826818#4 1252826818#5 1252826818#6 1252826818#7 38699586#0 38699586#1 265975963#1 265975963#2 38699587#0 80418095#0 80418095#1"/>
    </vehicle>
    <vehicle id="36" depart="36.00">
        <route edges="700293876#1 1121139432#2 -700293879#1 74851423#9 662886374#1 74851429#6 74851429#0 74851429#1 74851429#2 662886372#0 1277942000#0 1277942000#1 1277942000#3 1277942000#4 1277942000#5 1277942000#7 1277942000#8 1277941999#1 24583333#4 24583333#5 24583333#6 446922584#0 446922584#1 446922586#0 995113418 -712992080#4 -712992080#3 -712992080#2 -712992080#1"/>
    </vehicle>
    <vehicle id="37" depart="37.00">
        <route edges="24584375#9 24584375#10 447141153#0 447141153#1 24584389#0 24584389#1 24584389#2 24584389#3 782774053 722082950 570413589#0 570413589#1 570413589#2 447141139 1425368050#0 1425368050#1 447141140 24584377#0 24584377#1 24584377#2 24584377#3 24584377#4 24584377#5 24584377#6 24584377#7 24584377#8 24584377#9 447141152 570526053 447141150#0 111695525#0 111695525#1 44277690#1 44277690#2 44277690#3 44277690#4 44277690#5 44277690#6 1145143268#0 1145143268#1 31056642#2 31056642#3 590609996 779129470 80926788#0 80926788#1 80926788#2 80926788#3 424007961#1 -1386106195#6 -1386106195#5 -1386106195#4 -1386106195#3 -1072914446#1 1072914445#0"/>
    </vehicle>
    <vehicle id="38" depart="38.00">
        <route edges="749606302#2 278577251 749606304#0 749606304#1 278577243#0 278577243#1 278577243#2 278577243#3 278577243#4 998197441 447141151#0 447141151#1 447141151#2 447141151#3 447141151#4 447141151#5 447141151#6 80926781#0 1122270718"/>
    </vehicle>
    <vehicle id="39" depart="39.00">
        <route edges="-38235325#1 -38235310#9"/>
    </vehicle>
    <vehicle id="40" depart="40.00">
        <route edges="1450857030 44263458#1 44263458#2 44263458#3 44263458#4 424007962#0 424007962#1 -424007962#1"/>
    </vehicle>
    <vehicle id="41" depart="41.00">
        <route edges="169080634#3 169080634#4 -169080632#3 -169080632#2 169080628#6 714986189#2 714986189#3 714986189#4 714986189#5 714986189#8 714986189#9 714986189#10 714986189#11 714986189#12 714986188#0 714986188#1 714986188#2 714986188#3 714986188#4 714986188#5 446922590#0 446922590#1 446922590#2 446922590#3 446922590#4 446922590#5 446922590#6 572511732#1 572511732#2 572511732#3 572511732#4 572511732#5 572511732#6 572511732#7 572511732#8 760480736 562340247#0 562340247#1 562340247#2 562340247#3 562340247#5 562340245 23133709#0 23133709#1 23133709#2 23133709#3 23133709#4 23133709#5 562340241 570616028#0 570616028#1 1278775921#0 1278775921#1 1278775920 24577478#0 24577478#1 996679779#0 996679779#1 996679779#2 996679779#3 996679779#4 996679779#5 996679779#6 996679779#7 447141147#0 447141147#1 447141147#2 758753883 1248777180#0 778199266#0 778199266#1 778199266#2 778199266#3 778199266#4 778199266#5 778199266#6 717907818#1 717907817#0 717907817#1 717907817#2 717907817#3 717907817#4 717907817#5 24577101#1 1066077572 717907814#0 717907814#2"/>
    </vehicle>
    <vehicle id="42" depart="42.00">
        <route edges="1066619122#1 1066619121#0 1066619121#1 997761547 24583327#13 997761545 997761544 997761546#0 997761546#1 570616029#0 570616029#1 564223496#0 564223496#1 578543605 564223494#0 564223494#1 564223494#2 564223494#3 554665389#0 554665389#1 554665389#2 578543606 80414533#1 -154090267#3 -154090267#2 -154090267#1 -154090267#0 -686878276 293153163#0 293153163#1 -1076749550 -164698290#3 -164698290#2 -993538736#0 -293153159#2"/>
    </vehicle>
    <vehicle id="43" depart="43.00">
        <route edges="998790358#17 998790358#18 998790358#19 998790351#0 998790351#1 998790351#2 447141131#0 447141131#1 447141131#2 1076627689#0 1076627689#1 1076627690 562439576 996679781#0 996679781#1 996679781#2 80499778#0 80499778#1 80499778#2 80499778#3 80499778#4 80499778#5 80499778#6 562340247#0 562340247#1 562340247#2 562340247#3 562340247#5 562340245 23133709#0 23133709#1 23133709#2 23133709#3 23133709#4 23133709#5 562340241 562340248#0 562340248#1 564223496#0 564223496#1 578543605 564223494#0 564223494#1 564223494#2 564223494#3 554665389#0 554665389#1 554665389#2 125453679#0 125453679#1 125453679#2 125453679#3 125453679#4 125453679#5 125453679#7 31058508#0 31058508#1 31058508#2 31058508#3 31058508#4 31058508#5 294288720#0 294288720#1 294288720#2 294288720#3 -79562254#3 -79562254#2 -79562254#0 294288718#0 294288718#1 294288718#2 294288718#3 1253251155#0 1253251157#0"/>
    </vehicle>
    <vehicle id="44" depart="44.00">
        <route edges="-1187193756 267447262#6 267447262#7 267447262#8 267447262#9 267447262#10 267447262#11 267447262#12 267447262#14 267447262#15 267447262#16 267447262#17 267447262#18 267447262#19 267447262#20 267447262#22 267447262#23 267447262#24 1343796256#0 1343796256#1 1450857030 125453679#7 31058508#0 31058508#1 31058508#2 31058508#3 31058508#4 31058508#5 31056646#1 31056646#2 31056646#3 31056646#4 31056646#5 31056646#6 31056646#7 590609998#2 590609998#3 590609998#4 590609998#5 111695524#1 111695524#2 -80926768#10 1122026477#0 -1122026477#3"/>
    </vehicle>
    <vehicle id="45" depart="45.00">
        <route edges="-1238224319 169080634#0 169080634#1 169080634#2 169080634#3 169080634#4 -169080632#3 -169080632#2 169080628#6 714986189#2 714986189#3 714986189#4 714986189#5 714986189#8 714986189#9 714986189#10 714986189#11 714986189#12 714986188#0 714986188#1 714986188#2 714986188#3 714986188#4 714986188#5 446922590#0 446922590#1 446922590#2 446922590#3 446922590#4 446922590#5 446922590#6 572511732#1 572511732#2 572511732#3 572511732#4 572511732#5 572511732#6 572511732#7 572511732#8 760480736 562340247#0 562340247#1 562340247#2 562340247#3 562340247#5 562340245 23133709#0 23133709#1 23133709#2 23133709#3 23133709#4 596373346 596373332#0 596373332#1 596373332#2 596373332#3 596373332#4 596373332#5 614071999 563974730#0 563974730#1 563974730#2 -24583491#3 -24583491#2 -24583491#1 -24583491#0 1374632732 24583337#7 24583337#8 24583337#9 24583337#10 24583337#11 24583337#0 24583337#1 24583335#0 24583335#1 24583335#2 24583335#4"/>
    </vehicle>
    <vehicle id="46" depart="46.00">
        <route edges="558828924#1 80932760#1 1136934121#3 28190430#0 28190430#1 28190395#2 610043964#0 610043964#1 590610019#0 590610019#1 31058505#0 31058505#1 31058505#2 31058505#3 31058505#4 31058505#5 31058505#6 31058505#7 31058505#8 77885911#0 77885905#0 77885905#1 77885905#2 77885905#3 749606306#1 1035988351 77885912#0 77885912#1 77885894#0 77885894#1 77885894#2 77885894#3 77885894#4 77885894#5 1387169686 1154556340 1102507027#0 1102507027#1 1102507027#2 1102507027#3 1312775224 80414551 463710731#0 463710731#1 80414550 1312775226#0 1312775226#1 -978263409#0 -28103855#3 -28103855#2 -28103855#1 -28103855#0 1076797983"/>
    </vehicle>
    <vehicle id="47" depart="47.00">