<?xml version="1.0" encoding="UTF-8"?>

<!-- generated on 2025-12-30 23:25:35.902039 by Eclipse SUMO randomTrips.py v1_25_0+0000-ac6c5a6752d
<configuration>
    <net-file value="delhi.net.xml"/>
    <route-file value="delhi.rou.xml"/>
    <end value="500.0"/>
</configuration>
-->

<routes xmlns:xsi="http://www.w3.org/2001/XMLSchema-instance" xsi:noNamespaceSchemaLocation="http://sumo.dlr.de/xsd/routes_file.xsd">
    <trip id="0" depart="0.00" from="24583491#0" to="-1072967425#1"/>
    <trip id="1" depart="1.00" from="-423553702#1" to="-294288718#1"/>
    <trip id="2" depart="2.00" from="38235289#14" to="24584512#0"/>
    <trip id="3" depart="3.00" from="714986193" to="-120287369#1"/>
    <trip id="4" depart="4.00" from="1072958463" to="-1076749548"/>
    <trip id="5" depart="5.00" from="-24584507#0" to="1238224320#1"/>
    <trip id="6" depart="6.00" from="-1072963717#0" to="-24584426#1"/>
    <trip id="7" depart="7.00" from="24583770" to="1387169685#1"/>
    <trip id="8" depart="8.00" from="-24584511#7" to="223906999#1"/>
    <trip id="9" depart="9.00" from="563974735#3" to="-1072910351#2"/>
    <trip id="10" depart="10.00" from="563791811#4" to="293153161#2"/>
    <trip id="11" depart="11.00" from="-717512502#0" to="-223906999#0"/>
    <trip id="12" depart="12.00" from="80926768#12" to="-79561650#1"/>
    <trip id="13" depart="13.00" from="-120287345#1" to="-123406196#1"/>
    <trip id="14" depart="14.00" from="615556519#7" to="24577108#4"/>
    <trip id="15" depart="15.00" from="563974730#2" to="38235041#6"/>
    <trip id="16" depart="16.00" from="1306164413#0" to="978263399#1"/>
    <trip id="17" depart="17.00" from="-904492404#1" to="1423495172"/>
    <trip id="18" depart="18.00" from="590610027#1" to="24582921#5"/>
    <trip id="19" depart="19.00" from="686792698#5" to="169080624#9"/>
    <trip id="20" depart="20.00" from="294288717#1" to="-1122023987#0"/>
    <trip id="21" depart="21.00" from="-267447262#15" to="-675478334#1"/>
    <trip id="22" depart="22.00" from="-1154556338#1" to="-370672194#2"/>
    <trip id="23" depart="23.00" from="-120287371#1" to="-553590482#0"/>
    <trip id="24" depart="24.00" from="24583488#1" to="-993539971#1"/>
    <trip id="25" depart="25.00" from="-80926777#4" to="-267447262#0"/>
    <trip id="26" depart="26.00" from="-38235329#0" to="79562254#3"/>
    <trip id="27" depart="27.00" from="24583594#1" to="24577361#7"/>
    <trip id="28" depart="28.00" from="-176466587#11" to="38235041#2"/>
    <trip id="29" depart="29.00" from="-169080628#2" to="1066619122#0"/>
    <trip id="30" depart="30.00" from="997761545" to="24583590#2"/>
    <trip id="31" depart="31.00" from="1427873854#1" to="267447262#20"/>
    <trip id="32" depart="32.00" from="612734124#0" to="447602096#2"/>
    <trip id="33" depart="33.00" from="-267447262#22" to="-1076782191"/>
    <trip id="34" depart="34.00" from="-686792705#1" to="-44263457#5"/>
    <trip id="35" depart="35.00" from="-24584416#1" to="80418095#1"/>
    <trip id="36" depart="36.00" from="700293876#1" to="-712992080#1"/>
    <trip id="37" depart="37.00" from="24584375#9" to="1072914445#0"/>
    <trip id="38" depart="38.00" from="749606302#2" to="1122270718"/>
    <trip id="39" depart="39.00" from="-38235325#1" to="-38235310#9"/>
    <trip id="40" depart="40.00" from="1450857030" to="-424007962#1"/>
    <trip id="41" depart="41.00" from="169080634#3" to="717907814#2"/>
    <trip id="42" depart="42.00" from="1066619122#1" to="-293153159#2"/>
    <trip id="43" depart="43.00" from="998790358#17" to="1253251157#0"/>
    <trip id="44" depart="44.00" from="-1187193756" to="-1122026477#3"/>
    <trip id="45" depart="45.00" from="-1238224319" to="24583335#4"/>
    <trip id="46" depart="46.00" from="558828924#1" to="1076797983"/>
    <trip id="47" depart="47.00" from="-1122038574#0" to="1067094697"/>
    <trip id="48" depart="48.00" from="998790358#0" to="1293565136"/>
    <trip id="49" depart="49.00" from="80936829#7" to="686792703#0"/>
    <trip id="50" depart="50.00" from="-1072914437#1" to="370672194#0"/>
    <trip id="51" depart="51.00" from="253307767#3" to="1312753970#3"/>
    <trip id="52" depart="52.00" from="-38235325#8" to="24583592#1"/>
    <trip id="53" depart="53.00" from="-1250154743#1" to="1121147811#4"/>
    <trip id="54" depart="54.00" from="1122026477#0" to="80926759#4"/>
    <trip id="55" depart="55.00" from="700293875#1" to="-424010396"/>
    <trip id="56" depart="56.00" from="120287371#0" to="-24583590#4"/>
    <trip id="57" depart="57.00" from="74851424#0" to="696618260#0"/>
    <trip id="58" depart="58.00" from="-562499724#15" to="24583587#1"/>
    <trip id="59" depart="59.00" from="24577115#1" to="-169081336#8"/>
    <trip id="60" depart="60.00" from="44141517#0" to="1331524579#0"/>
    <trip id="61" depart="61.00" from="-103176793" to="-746512769#0"/>
    <trip id="62" depart="62.00" from="-1072922044#3" to="77885892#0"/>
    <trip id="63" depart="63.00" from="700305758#2" to="596373338#7"/>
    <trip id="64" depart="64.00" from="-665146761#1" to="-1122220361"/>
    <trip id="65" depart="65.00" from="700293880#1" to="80418130#0"/>
    <trip id="66" depart="66.00" from="-1183848312" to="120287346#0"/>
    <trip id="67" depart="67.00" from="-1122228221" to="44141517#12"/>
    <trip id="68" depart="68.00" from="442157834" to="-1438583474#10"/>
    <trip id="69" depart="69.00" from="1145143268#1" to="1423495169#1"/>
    <trip id="70" depart="70.00" from="-38235325#10" to="696618266#1"/>
    <trip id="71" depart="71.00" from="1072960943#0" to="-267447262#23"/>
    <trip id="72" depart="72.00" from="1308794805" to="38235041#7"/>
    <trip id="73" depart="73.00" from="-24583769#3" to="-700305759#0"/>
    <trip id="74" depart="74.00" from="998790356#5" to="24584375#1"/>
    <trip id="75" depart="75.00" from="1076797985#0" to="1255913760#0"/>
    <trip id="76" depart="76.00" from="-1271156412#4" to="-294288720#1"/>
    <trip id="77" depart="77.00" from="-717454378" to="176466587#7"/>
    <trip id="78" depart="78.00" from="-267447262#7" to="-293153163#1"/>
    <trip id="79" depart="79.00" from="-1122230049#1" to="24583487#9"/>
    <trip id="80" depart="80.00" from="-267447262#20" to="744248532#0"/>
    <trip id="81" depart="81.00" from="686685084#1" to="-1156956443#3"/>
    <trip id="82" depart="82.00" from="-293153163#3" to="24584421#1"/>
    <trip id="83" depart="83.00" from="-24584420#8" to="-145411838#0"/>
    <trip id="84" depart="84.00" from="779077038#5" to="164698290#7"/>
    <trip id="85" depart="85.00" from="563974730#4" to="-24584392#0"/>
    <trip id="86" depart="86.00" from="-120287354#1" to="1121139429#1"/>
    <trip id="87" depart="87.00" from="1072960944#0" to="1150383473#2"/>
    <trip id="88" depart="88.00" from="370765179#3" to="24584504#0"/>
    <trip id="89" depart="89.00" from="995793692#0" to="-1250154743#0"/>
    <trip id="90" depart="90.00" from="1067094706#4" to="-798632017"/>
    <trip id="91" depart="91.00" from="686792698#5" to="-38235325#5"/>
    <trip id="92" depart="92.00" from="-24583489#6" to="1122030699"/>
    <trip id="93" depart="93.00" from="1072958463" to="-561672574#1"/>
    <trip id="94" depart="94.00" from="-370672194#10" to="776732959"/>
    <trip id="95" depart="95.00" from="111695524#3" to="686792705#1"/>
    <trip id="96" depart="96.00" from="1393463455#2" to="-1122028504#1"/>
    <trip id="97" depart="97.00" from="998790359" to="611866595#4"/>
    <trip id="98" depart="98.00" from="80936825#2" to="778199266#5"/>
    <trip id="99" depart="99.00" from="656933877#0" to="-24582921#11"/>
    <trip id="100" depart="100.00" from="1184925267" to="-289747210#0"/>
    <trip id="101" depart="101.00" from="1066625120#8" to="-1122228221"/>
    <trip id="102" depart="102.00" from="-904492406#0" to="995793692#7"/>
    <trip id="103" depart="103.00" from="1122026483#3" to="1076803626"/>
    <trip id="104" depart="104.00" from="80926768#12" to="998790356#6"/>
    <trip id="105" depart="105.00" from="1423495174" to="34404740#3"/>
    <trip id="106" depart="106.00" from="-164675827#5" to="-686792706"/>
    <trip id="107" depart="107.00" from="80936825#0" to="169080629#0"/>
    <trip id="108" depart="108.00" from="1320950715" to="38699589#2"/>
    <trip id="109" depart="109.00" from="-1122026493#2" to="169081336#5"/>
    <trip id="110" depart="110.00" from="120287381#0" to="665921719"/>
    <trip id="111" depart="111.00" from="-164698290#5" to="80926777#2"/>
    <trip id="112" depart="112.00" from="-1154556338#3" to="-24584374#0"/>
    <trip id="113" depart="113.00" from="23133600#8" to="24584511#1"/>
    <trip id="114" depart="114.00" from="-293153141#0" to="-1420918096#0"/>
    <trip id="115" depart="115.00" from="714986189#8" to="-38235310#6"/>
    <trip id="116" depart="116.00" from="23133600#5" to="24583321#1"/>
    <trip id="117" depart="117.00" from="1072922044#3" to="169081336#2"/>
    <trip id="118" depart="118.00" from="1255913759" to="79561645"/>
    <trip id="119" depart="119.00" from="-24584381#0" to="319329101#4"/>
    <trip id="120" depart="120.00" from="-293429097#2" to="1072914445#1"/>
    <trip id="121" depart="121.00" from="24584420#4" to="-686878276"/>
    <trip id="122" depart="122.00" from="-686792709#1" to="408156871#0"/>
    <trip id="123" depart="123.00" from="-1123526751" to="1122231674"/>
    <trip id="124" depart="124.00" from="998790358#5" to="998790358#0"/>
    <trip id="125" depart="125.00" from="-1127483396" to="-28103855#0"/>
    <trip id="126" depart="126.00" from="-38235325#11" to="77885906#1"/>
    <trip id="127" depart="127.00" from="706277644#1" to="700305760#8"/>
    <trip id="128" depart="128.00" from="-80926777#11" to="-235103610#0"/>
    <trip id="129" depart="129.00" from="596373338#12" to="294288720#2"/>
    <trip id="130" depart="130.00" from="24577360#1" to="996679781#1"/>
    <trip id="131" depart="131.00" from="24584375#1" to="-1072910682"/>
    <trip id="132" depart="132.00" from="577982260#4" to="-686834805#6"/>
    <trip id="133" depart="133.00" from="24584384#5" to="80414533#1"/>
    <trip id="134" depart="134.00" from="-1386106195#1" to="-1327819722"/>
    <trip id="135" depart="135.00" from="-123406182#0" to="1427873854#0"/>
    <trip id="136" depart="136.00" from="-38699587#1" to="24577115#0"/>
    <trip id="137" depart="137.00" from="311994764#2" to="-24584512#1"/>
    <trip id="138" depart="138.00" from="24583487#2" to="-44141517#0"/>
    <trip id="139" depart="139.00" from="1185928006#1" to="744248531"/>
    <trip id="140" depart="140.00" from="615556519#0" to="-1216791012#0"/>
    <trip id="141" depart="141.00" from="1072960944#0" to="-553590474#4"/>
    <trip id="142" depart="142.00" from="-1072900674" to="446922590#0"/>
    <trip id="143" depart="143.00" from="24583488#9" to="-423618455#3"/>
    <trip id="144" depart="144.00" from="38235310#4" to="1423495170#9"/>
    <trip id="145" depart="145.00" from="1072978659#0" to="-1072911375#0"/>
    <trip id="146" depart="146.00" from="-1139138538" to="712992071#0"/>
    <trip id="147" depart="147.00" from="720546573#4" to="1387169685#5"/>
    <trip id="148" depart="148.00" from="596373338#6" to="169081335#0"/>
    <trip id="149" depart="149.00" from="-145411835#3" to="-142865883#8"/>
    <trip id="150" depart="150.00" from="-675478334#3" to="717907815"/>
    <trip id="151" depart="151.00" from="562499724#15" to="686792700#1"/>
    <trip id="152" depart="152.00" from="717907807#5" to="-267447262#14"/>
    <trip id="153" depart="153.00" from="-370672194#0" to="-1253490936#0"/>
    <trip id="154" depart="154.00" from="463699084#1" to="712992071#4"/>
    <trip id="155" depart="155.00" from="1072906784" to="24583327#3"/>
    <trip id="156" depart="156.00" from="-164675827#4" to="77885894#0"/>
    <trip id="157" depart="157.00" from="686814926#0" to="993538737"/>
    <trip id="158" depart="158.00" from="564223496#1" to="707566696#3"/>
    <trip id="159" depart="159.00" from="-1072960944#0" to="38235302#1"/>
    <trip id="160" depart="160.00" from="563679821#4" to="686834805#5"/>
    <trip id="161" depart="161.00" from="564223496#1" to="-442157836"/>
    <trip id="162" depart="162.00" from="553090004#2" to="-1277942000#7"/>
    <trip id="163" depart="163.00" from="696618260#1" to="686771927#0"/>
    <trip id="164" depart="164.00" from="-253307767#5" to="579781481#2"/>
    <trip id="165" depart="165.00" from="1122030698#0" to="-696618261"/>
    <trip id="166" depart="166.00" from="562499724#1" to="-319329101#10"/>
    <trip id="167" depart="167.00" from="-1072958465#2" to="-24584414#3"/>
    <trip id="168" depart="168.00" from="-700293876#1" to="686834805#7"/>
    <trip id="169" depart="169.00" from="80926788#5" to="-561672577#1"/>
    <trip id="170" depart="170.00" from="24583495#5" to="1072915304"/>
    <trip id="171" depart="171.00" from="994825989" to="1312753969#1"/>
    <trip id="172" depart="172.00" from="798632015#0" to="-1320950715"/>
    <trip id="173" depart="173.00" from="80936829#3" to="-24583590#3"/>
    <trip id="174" depart="174.00" from="80926777#7" to="-44141517#2"/>
    <trip id="175" depart="175.00" from="-123406195#5" to="1121147811#3"/>
    <trip id="176" depart="176.00" from="370765179#0" to="-707566696#4"/>
    <trip id="177" depart="177.00" from="24577106#1" to="1253472523#0"/>
    <trip id="178" depart="178.00" from="-993539971#2" to="169080624#5"/>
    <trip id="179" depart="179.00" from="-38235041#2" to="31056646#6"/>
    <trip id="180" depart="180.00" from="-1060463405#0" to="778199266#1"/>
    <trip id="181" depart="181.00" from="1307717770#1" to="360250362#0"/>
    <trip id="182" depart="182.00" from="38235310#9" to="24584424#2"/>
    <trip id="183" depart="183.00" from="-80926764#3" to="-1154700247#1"/>
    <trip id="184" depart="184.00" from="24584390#0" to="-773604846"/>
    <trip id="185" depart="185.00" from="-686792698#4" to="656933877#18"/>
    <trip id="186" depart="186.00" from="319329101#5" to="-686895475#0"/>
    <trip id="187" depart="187.00" from="-686644352#0" to="1072967420#0"/>
    <trip id="188" depart="188.00" from="1067094706#3" to="-686792700#0"/>
    <trip id="189" depart="189.00" from="-1306160890" to="1076782196#0"/>
    <trip id="190" depart="190.00" from="80414533#1" to="253307767#0"/>
    <trip id="191" depart="191.00" from="718034947#6" to="24582918#0"/>
    <trip id="192" depart="192.00" from="-577982260#1" to="1420918098#0"/>
    <trip id="193" depart="193.00" from="-103176785#2" to="-612734125"/>
    <trip id="194" depart="194.00" from="1074764284#1" to="169080632#0"/>
    <trip id="195" depart="195.00" from="24584375#4" to="1145143266#4"/>
    <trip id="196" depart="196.00" from="111695524#1" to="-28103855#3"/>
    <trip id="197" depart="197.00" from="1145143266#1" to="720112425"/>
    <trip id="198" depart="198.00" from="562499724#14" to="-24583487#9"/>
    <trip id="199" depart="199.00" from="-1183653758" to="1253495770#0"/>
    <trip id="200" depart="200.00" from="24583339#5" to="-79561645"/>
    <trip id="201" depart="201.00" from="578543603#5" to="391534135#3"/>
    <trip id="202" depart="202.00" from="24584421#0" to="-294288720#1"/>
    <trip id="203" depart="203.00" from="-24583594#0" to="-1072967423#1"/>
    <trip id="204" depart="204.00" from="-311994765#2" to="116046169#3"/>
    <trip id="205" depart="205.00" from="656933877#14" to="-1184925267"/>
    <trip id="206" depart="206.00" from="1072914442#1" to="24583487#12"/>
    <trip id="207" depart="207.00" from="-24583587#1" to="293153145#0"/>
    <trip id="208" depart="208.00" from="120287350#3" to="-38235296#7"/>
    <trip id="209" depart="209.00" from="24584377#2" to="-1072906785#5"/>
    <trip id="210" depart="210.00" from="38699589#1" to="44277694#3"/>
    <trip id="211" depart="211.00" from="-123406181#0" to="1077883503#0"/>
    <trip id="212" depart="212.00" from="-24577106#2" to="80926768#6"/>
    <trip id="213" depart="213.00" from="1253251644#2" to="-1122028502#0"/>
    <trip id="214" depart="214.00" from="-360250362#3" to="656933877#2"/>
    <trip id="215" depart="215.00" from="1122026492#1" to="563679836#6"/>
    <trip id="216" depart="216.00" from="24584414#0" to="997761541#2"/>
    <trip id="217" depart="217.00" from="23133709#0" to="80429849#14"/>
    <trip id="218" depart="218.00" from="714986190#4" to="24577487#0"/>
    <trip id="219" depart="219.00" from="319329101#2" to="1238224318#0"/>
    <trip id="220" depart="220.00" from="590610030#5" to="1420918098#0"/>
    <trip id="221" depart="221.00" from="717454380#2" to="38235420#2"/>
    <trip id="222" depart="222.00" from="1145143266#9" to="-423618425#4"/>
    <trip id="223" depart="223.00" from="-343654534#2" to="24583495#8"/>
    <trip id="224" depart="224.00" from="442157834" to="1271156421#5"/>
    <trip id="225" depart="225.00" from="24583330#3" to="-550477431#1"/>
    <trip id="226" depart="226.00" from="-1145143266#7" to="-612734121#1"/>
    <trip id="227" depart="227.00" from="-38699586#0" to="-717454379#2"/>
    <trip id="228" depart="228.00" from="-28103855#3" to="291266017#5"/>
    <trip id="229" depart="229.00" from="294288718#7" to="-1144624114#0"/>
    <trip id="230" depart="230.00" from="1072908966" to="1386086512#0"/>
    <trip id="231" depart="231.00" from="1072914446#0" to="-264592550#1"/>
    <trip id="232" depart="232.00" from="1072933745" to="744248529"/>
    <trip id="233" depart="233.00" from="169080634#0" to="291266019#0"/>
    <trip id="234" depart="234.00" from="686644352#0" to="44263458#3"/>
    <trip id="235" depart="235.00" from="-993538736#0" to="-1072910349"/>
    <trip id="236" depart="236.00" from="-777743096#2" to="423563749#3"/>
    <trip id="237" depart="237.00" from="663858577#1" to="80926759#1"/>
    <trip id="238" depart="238.00" from="1072922044#1" to="38699589#0"/>
    <trip id="239" depart="239.00" from="1386086511#0" to="24577108#1"/>
    <trip id="240" depart="240.00" from="-24584511#7" to="-293153161#0"/>
    <trip id="241" depart="241.00" from="1076782194#2" to="-1076510349#0"/>
    <trip id="242" depart="242.00" from="-714986194#1" to="253307769#2"/>
    <trip id="243" depart="243.00" from="1067100260#5" to="-24582919#2"/>
    <trip id="244" depart="244.00" from="1122230050" to="-142865883#9"/>
    <trip id="245" depart="245.00" from="24582921#3" to="-1073010466"/>
    <trip id="246" depart="246.00" from="103176785#1" to="154356516#0"/>
    <trip id="247" depart="247.00" from="-1072967420#1" to="24583593#4"/>
    <trip id="248" depart="248.00" from="-1386585586#1" to="1136934121#2"/>
    <trip id="249" depart="249.00" from="-1121186670" to="1066619121#0"/>
    <trip id="250" depart="250.00" from="-24584417#0" to="-750482273#2"/>
    <trip id="251" depart="251.00" from="424007962#1" to="1066619121#0"/>
    <trip id="252" depart="252.00" from="38699591#11" to="596373338#8"/>
    <trip id="253" depart="253.00" from="-370672197#3" to="-120287352#0"/>
    <trip id="254" depart="254.00" from="-1072922044#3" to="1331524579#0"/>
    <trip id="255" depart="255.00" from="998790362#1" to="-80926777#10"/>
    <trip id="256" depart="256.00" from="24583771#0" to="492439726#0"/>
    <trip id="257" depart="257.00" from="24584373#5" to="423618425#3"/>
    <trip id="258" depart="258.00" from="80418144#1" to="-24584503#2"/>
    <trip id="259" depart="259.00" from="-1072925262#1" to="-169081336#5"/>
    <trip id="260" depart="260.00" from="-1292286062" to="24584422#1"/>
    <trip id="261" depart="261.00" from="145411838#2" to="-293153145#0"/>
    <trip id="262" depart="262.00" from="291266019#1" to="44263461#2"/>
    <trip id="263" depart="263.00" from="-169081335#1" to="24577360#0"/>
    <trip id="264" depart="264.00" from="38235420#7" to="-1308794805"/>
    <trip id="265" depart="265.00" from="579781481#1" to="80926781#4"/>
    <trip id="266" depart="266.00" from="-123406195#3" to="-1072978656#3"/>
    <trip id="267" depart="267.00" from="-686685084#1" to="253307767#0"/>
    <trip id="268" depart="268.00" from="80926768#17" to="1072915296#2"/>
    <trip id="269" depart="269.00" from="31058508#2" to="-1185928007#1"/>
    <trip id="270" depart="270.00" from="278577243#0" to="24583335#2"/>
    <trip id="271" depart="271.00" from="-120287377#0" to="447141137#1"/>
    <trip id="272" depart="272.00" from="656933877#17" to="24577096#8"/>
    <trip id="273" depart="273.00" from="-1271156413#0" to="995793691"/>
    <trip id="274" depart="274.00" from="488544864#3" to="-80926768#4"/>
    <trip id="275" depart="275.00" from="1073010464" to="-998790358#15"/>
    <trip id="276" depart="276.00" from="1219699876#0" to="-80418095#4"/>
    <trip id="277" depart="277.00" from="656933877#13" to="590609989#1"/>
    <trip id="278" depart="278.00" from="-123401415" to="80926777#2"/>
    <trip id="279" depart="279.00" from="24583488#1" to="596346055#4"/>
    <trip id="280" depart="280.00" from="294288720#3" to="1121147813#2"/>
    <trip id="281" depart="281.00" from="38235260#12" to="80926788#2"/>
    <trip id="282" depart="282.00" from="-38235420#6" to="570217339#2"/>
    <trip id="283" depart="283.00" from="1307717770#0" to="120287338"/>
    <trip id="284" depart="284.00" from="1076782194#1" to="38235260#2"/>
    <trip id="285" depart="285.00" from="-38235349#1" to="665146761#1"/>
    <trip id="286" depart="286.00" from="590610030#6" to="-120287368"/>
    <trip id="287" depart="287.00" from="707566695#1" to="-38235296#6"/>
    <trip id="288" depart="288.00" from="1122220358#0" to="24577480#2"/>
    <trip id="289" depart="289.00" from="-904492406#0" to="-1074774615#0"/>
    <trip id="290" depart="290.00" from="656933877#4" to="-24583594#0"/>
    <trip id="291" depart="291.00" from="-24584418#0" to="563679820#7"/>
    <trip id="292" depart="292.00" from="-717512502#0" to="707566695#0"/>
    <trip id="293" depart="293.00" from="293153159#1" to="-553590474#2"/>
    <trip id="294" depart="294.00" from="-1072911376#1" to="80418132#1"/>
    <trip id="295" depart="295.00" from="-1183848312" to="370545701#0"/>
    <trip id="296" depart="296.00" from="1185928006#1" to="423618455#6"/>
    <trip id="297" depart="297.00" from="278577243#0" to="24583770"/>
    <trip id="298" depart="298.00" from="120287340#1" to="562499724#14"/>
    <trip id="299" depart="299.00" from="-120287345#2" to="-293523191#0"/>
    <trip id="300" depart="300.00" from="28103794#1" to="-696618265#0"/>
    <trip id="301" depart="301.00" from="169080628#2" to="116046167#2"/>
    <trip id="302" depart="302.00" from="1287065074#1" to="1077883504"/>
    <trip id="303" depart="303.00" from="38235349#1" to="-773816586#0"/>
    <trip id="304" depart="304.00" from="293429097#1" to="-44611045#0"/>
    <trip id="305" depart="305.00" from="-370672194#6" to="-1420918098#3"/>
    <trip id="306" depart="306.00" from="-24583495#4" to="-138947059#1"/>
    <trip id="307" depart="307.00" from="1306160891#0" to="44141517#6"/>
    <trip id="308" depart="308.00" from="-24583487#10" to="-291266017#8"/>
    <trip id="309" depart="309.00" from="1183640963" to="370761286#5"/>
    <trip id="310" depart="310.00" from="993539117#0" to="1285005493#2"/>
    <trip id="311" depart="311.00" from="-44141517#11" to="-1253251645"/>
    <trip id="312" depart="312.00" from="-24583584#4" to="-319329101#10"/>
    <trip id="313" depart="313.00" from="-24577361#1" to="-1072914446#1"/>
    <trip id="314" depart="314.00" from="1306141818#0" to="-488544864#3"/>
    <trip id="315" depart="315.00" from="978263403#1" to="1427873854#0"/>
    <trip id="316" depart="316.00" from="291266017#4" to="-142865883#2"/>
    <trip id="317" depart="317.00" from="686895475#5" to="120287360#1"/>
    <trip id="318" depart="318.00" from="696618263#0" to="164786644#0"/>
    <trip id="319" depart="319.00" from="1126838107" to="1122026477#1"/>
    <trip id="320" depart="320.00" from="-24582921#6" to="-1122028507#2"/>
    <trip id="321" depart="321.00" from="80414533#5" to="1183845624"/>
    <trip id="322" depart="322.00" from="581245363#0" to="1072922044#2"/>
    <trip id="323" depart="323.00" from="-1138292933#0" to="24583487#11"/>
    <trip id="324" depart="324.00" from="-1122026477#0" to="-169080634#2"/>
    <trip id="325" depart="325.00" from="145411836" to="-696618256"/>
    <trip id="326" depart="326.00" from="998790354#7" to="-1386106195#5"/>
    <trip id="327" depart="327.00" from="44141517#5" to="24577118#7"/>
    <trip id="328" depart="328.00" from="553590478#1" to="-294288720#9"/>
    <trip id="329" depart="329.00" from="125453679#7" to="1122038574#2"/>
    <trip id="330" depart="330.00" from="111695524#13" to="686792699#0"/>
    <trip id="331" depart="331.00" from="997761547" to="-696618262#1"/>
    <trip id="332" depart="332.00" from="24582919#4" to="24577478#0"/>
    <trip id="333" depart="333.00" from="38235302#4" to="80418131#3"/>
    <trip id="334" depart="334.00" from="-24584392#0" to="-267447262#19"/>
    <trip id="335" depart="335.00" from="24584380#6" to="-235103516#0"/>
    <trip id="336" depart="336.00" from="-235103490#5" to="-1185928005#4"/>
    <trip id="337" depart="337.00" from="-1067094697" to="1122038574#2"/>
    <trip id="338" depart="338.00" from="23133600#14" to="-686657381"/>
    <trip id="339" depart="339.00" from="-289747210#1" to="31056645#5"/>
    <trip id="340" depart="340.00" from="293429097#1" to="1122215538"/>
    <trip id="341" depart="341.00" from="267447262#14" to="777743096#1"/>
    <trip id="342" depart="342.00" from="553090004#4" to="24583332#4"/>
    <trip id="343" depart="343.00" from="24584381#0" to="779077038#0"/>
    <trip id="344" depart="344.00" from="1072963716#1" to="1386585587#0"/>
    <trip id="345" depart="345.00" from="24583593#8" to="746512769#1"/>
    <trip id="346" depart="346.00" from="590609998#3" to="-1183640963"/>
    <trip id="347" depart="347.00" from="-169080634#0" to="-697766793#3"/>
    <trip id="348" depart="348.00" from="38699585#6" to="164698289#1"/>
    <trip id="349" depart="349.00" from="-44277694#2" to="-1423495171"/>
    <trip id="350" depart="350.00" from="267447262#22" to="293429097#4"/>
    <trip id="351" depart="351.00" from="80414565" to="1219699881#4"/>
    <trip id="352" depart="352.00" from="120287350#0" to="-120287349"/>
    <trip id="353" depart="353.00" from="-1076803626" to="1121139432#1"/>
    <trip id="354" depart="354.00" from="-695576804#0" to="-38235329#7"/>
    <trip id="355" depart="355.00" from="-120287340#0" to="80926778#0"/>
    <trip id="356" depart="356.00" from="80429849#13" to="998790361"/>
    <trip id="357" depart="357.00" from="24584420#7" to="-44263461#7"/>
    <trip id="358" depart="358.00" from="-1076827648" to="423618440#1"/>
    <trip id="359" depart="359.00" from="1136934121#2" to="24584375#9"/>
    <trip id="360" depart="360.00" from="750482273#4" to="-24583593#7"/>
    <trip id="361" depart="361.00" from="169081334#1" to="24583489#8"/>
    <trip id="362" depart="362.00" from="120287344#1" to="-1210584097"/>
    <trip id="363" depart="363.00" from="-758558782#0" to="-777743097#4"/>
    <trip id="364" depart="364.00" from="24584418#1" to="686685084#1"/>
    <trip id="365" depart="365.00" from="-700293880#0" to="291266017#3"/>
    <trip id="366" depart="366.00" from="-44277694#0" to="80418100#1"/>
    <trip id="367" depart="367.00" from="570616026#7" to="1423495170#1"/>
    <trip id="368" depart="368.00" from="1122026483#2" to="-712992080#0"/>
    <trip id="369" depart="369.00" from="-696618257" to="80936829#7"/>
    <trip id="370" depart="370.00" from="1067100260#4" to="1253490936#0"/>
    <trip id="371" depart="371.00" from="997761541#3" to="24584383#0"/>
    <trip id="372" depart="372.00" from="1327208477#1" to="1074774612#1"/>
    <trip id="373" depart="373.00" from="-24583488#2" to="-993539123#3"/>
    <trip id="374" depart="374.00" from="423563749#2" to="24583332#6"/>
    <trip id="375" depart="375.00" from="423618455#1" to="-24584512#1"/>
    <trip id="376" depart="376.00" from="1387169685#3" to="77885889#3"/>
    <trip id="377" depart="377.00" from="1076797985#0" to="293153161#2"/>
    <trip id="378" depart="378.00" from="-1271156414#0" to="978263400"/>
    <trip id="379" depart="379.00" from="24577115#0" to="-38235260#5"/>
    <trip id="380" depart="380.00" from="-164698291#0" to="1423495170#4"/>
    <trip id="381" depart="381.00" from="1420918100" to="-123401417#0"/>
    <trip id="382" depart="382.00" from="998790353#0" to="749606302#2"/>
    <trip id="383" depart="383.00" from="1122038574#0" to="-1386086512#1"/>
    <trip id="384" depart="384.00" from="596373332#1" to="1219699876#3"/>
    <trip id="385" depart="385.00" from="31060395#2" to="1253251155#0"/>
    <trip id="386" depart="386.00" from="-391534135#1" to="611866592#2"/>
    <trip id="387" depart="387.00" from="993539970" to="-38235296#5"/>
    <trip id="388" depart="388.00" from="1420918096#2" to="1067100260#1"/>
    <trip id="389" depart="389.00" from="760014495#0" to="1252826818#4"/>
    <trip id="390" depart="390.00" from="700305760#0" to="686834805#5"/>
    <trip id="391" depart="391.00" from="-423563749#3" to="562340241"/>
    <trip id="392" depart="392.00" from="1072914443#1" to="779077038#4"/>
    <trip id="393" depart="393.00" from="1219699881#0" to="590609973#1"/>
    <trip id="394" depart="394.00" from="-44141517#10" to="-686834805#0"/>
    <trip id="395" depart="395.00" from="169081336#2" to="998790358#7"/>
    <trip id="396" depart="396.00" from="1185928010" to="-169080632#3"/>
    <trip id="397" depart="397.00" from="1307717770#2" to="-80926764#6"/>
    <trip id="398" depart="398.00" from="1420918098#4" to="1386106195#4"/>
    <trip id="399" depart="399.00" from="1122026485#0" to="-732808235#0"/>